/*--------------------------------*- C++ -*----------------------------------*\
| =========                 |                                                 |
| \\      /  F ield         | OpenFOAM: The Open Source CFD Toolbox           |
|  \\    /   O peration     | Version:  2.3.x                                 |
|   \\  /    A nd           | Web:      www.OpenFOAM.org                      |
|    \\/     M anipulation  |                                                 |
\*---------------------------------------------------------------------------*/
FoamFile
{
    version     2.0;
    format      binary;
    class       polyBoundaryMesh;
    location    "constant/polyMesh";
    object      boundary;
}
// * * * * * * * * * * * * * * * * * * * * * * * * * * * * * * * * * * * * * //

9
(
    slip
    {
        type            patch;
        nFaces          275;
        startFace       8389;
    }
    sym
    {
        type            symmetry;
        inGroups        1(symmetry);
        nFaces          0;
        startFace       8664;
    }
    inlet
    {
        type            patch;
        nFaces          0;
        startFace       8664;
    }
    outlet
    {
        type            patch;
        nFaces          30;
        startFace       8664;
    }
    lowerWall
    {
        type            wall;
        inGroups        1(wall);
        nFaces          277;
        startFace       8694;
    }
    wall
    {
        type            wall;
        inGroups        1(wall);
        nFaces          102;
        startFace       8971;
    }
    procBoundary5to1
    {
        type            processor;
        inGroups        1(processor);
        nFaces          5;
        startFace       9073;
        matchTolerance  0.0001;
        transform       unknown;
        myProcNo        5;
        neighbProcNo    1;
    }
    procBoundary5to2
    {
        type            processor;
        inGroups        1(processor);
        nFaces          707;
        startFace       9078;
        matchTolerance  0.0001;
        transform       unknown;
        myProcNo        5;
        neighbProcNo    2;
    }
    procBoundary5to4
    {
        type            processor;
        inGroups        1(processor);
        nFaces          199;
        startFace       9785;
        matchTolerance  0.0001;
        transform       unknown;
        myProcNo        5;
        neighbProcNo    4;
    }
)

// ************************************************************************* //
