/*--------------------------------*- C++ -*----------------------------------*\
| =========                 |                                                 |
| \\      /  F ield         | OpenFOAM: The Open Source CFD Toolbox           |
|  \\    /   O peration     | Version:  2.3.x                                 |
|   \\  /    A nd           | Web:      www.OpenFOAM.org                      |
|    \\/     M anipulation  |                                                 |
\*---------------------------------------------------------------------------*/
FoamFile
{
    version     2.0;
    format      ascii;
    class       polyBoundaryMesh;
    location    "constant/polyMesh";
    object      boundary;
}
// * * * * * * * * * * * * * * * * * * * * * * * * * * * * * * * * * * * * * //

9
(
    slip
    {
        type            patch;
        nFaces          154;
        startFace       8484;
    }
    sym
    {
        type            symmetry;
        inGroups        1(symmetry);
        nFaces          0;
        startFace       8638;
    }
    inlet
    {
        type            patch;
        nFaces          30;
        startFace       8638;
    }
    outlet
    {
        type            patch;
        nFaces          0;
        startFace       8668;
    }
    lowerWall
    {
        type            wall;
        inGroups        1(wall);
        nFaces          178;
        startFace       8668;
    }
    wall
    {
        type            wall;
        inGroups        1(wall);
        nFaces          218;
        startFace       8846;
    }
    procBoundary3to0
    {
        type            processor;
        inGroups        1(processor);
        nFaces          519;
        startFace       9064;
        matchTolerance  0.0001;
        transform       unknown;
        myProcNo        3;
        neighbProcNo    0;
    }
    procBoundary3to1
    {
        type            processor;
        inGroups        1(processor);
        nFaces          26;
        startFace       9583;
        matchTolerance  0.0001;
        transform       unknown;
        myProcNo        3;
        neighbProcNo    1;
    }
    procBoundary3to4
    {
        type            processor;
        inGroups        1(processor);
        nFaces          207;
        startFace       9609;
        matchTolerance  0.0001;
        transform       unknown;
        myProcNo        3;
        neighbProcNo    4;
    }
)

// ************************************************************************* //
