/*--------------------------------*- C++ -*----------------------------------*\
| =========                 |                                                 |
| \\      /  F ield         | OpenFOAM: The Open Source CFD Toolbox           |
|  \\    /   O peration     | Version:  2.3.x                                 |
|   \\  /    A nd           | Web:      www.OpenFOAM.org                      |
|    \\/     M anipulation  |                                                 |
\*---------------------------------------------------------------------------*/
FoamFile
{
    version     2.0;
    format      binary;
    class       polyBoundaryMesh;
    location    "constant/polyMesh";
    object      boundary;
}
// * * * * * * * * * * * * * * * * * * * * * * * * * * * * * * * * * * * * * //

11
(
    slip
    {
        type            patch;
        nFaces          3;
        startFace       7863;
    }
    sym
    {
        type            symmetry;
        inGroups        1(symmetry);
        nFaces          335;
        startFace       7866;
    }
    inlet
    {
        type            patch;
        nFaces          0;
        startFace       8201;
    }
    outlet
    {
        type            patch;
        nFaces          0;
        startFace       8201;
    }
    lowerWall
    {
        type            wall;
        inGroups        1(wall);
        nFaces          216;
        startFace       8201;
    }
    wall
    {
        type            wall;
        inGroups        1(wall);
        nFaces          643;
        startFace       8417;
    }
    procBoundary1to0
    {
        type            processor;
        inGroups        1(processor);
        nFaces          127;
        startFace       9060;
        matchTolerance  0.0001;
        transform       unknown;
        myProcNo        1;
        neighbProcNo    0;
    }
    procBoundary1to2
    {
        type            processor;
        inGroups        1(processor);
        nFaces          128;
        startFace       9187;
        matchTolerance  0.0001;
        transform       unknown;
        myProcNo        1;
        neighbProcNo    2;
    }
    procBoundary1to3
    {
        type            processor;
        inGroups        1(processor);
        nFaces          26;
        startFace       9315;
        matchTolerance  0.0001;
        transform       unknown;
        myProcNo        1;
        neighbProcNo    3;
    }
    procBoundary1to4
    {
        type            processor;
        inGroups        1(processor);
        nFaces          570;
        startFace       9341;
        matchTolerance  0.0001;
        transform       unknown;
        myProcNo        1;
        neighbProcNo    4;
    }
    procBoundary1to5
    {
        type            processor;
        inGroups        1(processor);
        nFaces          5;
        startFace       9911;
        matchTolerance  0.0001;
        transform       unknown;
        myProcNo        1;
        neighbProcNo    5;
    }
)

// ************************************************************************* //
