/*--------------------------------*- C++ -*----------------------------------*\
| =========                 |                                                 |
| \\      /  F ield         | OpenFOAM: The Open Source CFD Toolbox           |
|  \\    /   O peration     | Version:  2.3.x                                 |
|   \\  /    A nd           | Web:      www.OpenFOAM.org                      |
|    \\/     M anipulation  |                                                 |
\*---------------------------------------------------------------------------*/
FoamFile
{
    version     2.0;
    format      ascii;
    class       polyBoundaryMesh;
    location    "constant/polyMesh";
    object      boundary;
}
// * * * * * * * * * * * * * * * * * * * * * * * * * * * * * * * * * * * * * //

8
(
    slip
    {
        type            patch;
        nFaces          14;
        startFace       8170;
    }
    sym
    {
        type            symmetry;
        inGroups        1(symmetry);
        nFaces          463;
        startFace       8184;
    }
    inlet
    {
        type            patch;
        nFaces          6;
        startFace       8647;
    }
    outlet
    {
        type            patch;
        nFaces          0;
        startFace       8653;
    }
    lowerWall
    {
        type            wall;
        inGroups        1(wall);
        nFaces          171;
        startFace       8653;
    }
    wall
    {
        type            wall;
        inGroups        1(wall);
        nFaces          377;
        startFace       8824;
    }
    procBoundary0to1
    {
        type            processor;
        inGroups        1(processor);
        nFaces          127;
        startFace       9201;
        matchTolerance  0.0001;
        transform       unknown;
        myProcNo        0;
        neighbProcNo    1;
    }
    procBoundary0to3
    {
        type            processor;
        inGroups        1(processor);
        nFaces          519;
        startFace       9328;
        matchTolerance  0.0001;
        transform       unknown;
        myProcNo        0;
        neighbProcNo    3;
    }
)

// ************************************************************************* //
