/*--------------------------------*- C++ -*----------------------------------*\
| =========                 |                                                 |
| \\      /  F ield         | OpenFOAM: The Open Source CFD Toolbox           |
|  \\    /   O peration     | Version:  2.3.x                                 |
|   \\  /    A nd           | Web:      www.OpenFOAM.org                      |
|    \\/     M anipulation  |                                                 |
\*---------------------------------------------------------------------------*/
FoamFile
{
    version     2.0;
    format      ascii;
    class       polyBoundaryMesh;
    location    "constant/polyMesh";
    object      boundary;
}
// * * * * * * * * * * * * * * * * * * * * * * * * * * * * * * * * * * * * * //

8
(
    slip
    {
        type            patch;
        nFaces          25;
        startFace       8007;
    }
    sym
    {
        type            symmetry;
        inGroups        1(symmetry);
        nFaces          619;
        startFace       8032;
    }
    inlet
    {
        type            patch;
        nFaces          0;
        startFace       8651;
    }
    outlet
    {
        type            patch;
        nFaces          6;
        startFace       8651;
    }
    lowerWall
    {
        type            wall;
        inGroups        1(wall);
        nFaces          213;
        startFace       8657;
    }
    wall
    {
        type            wall;
        inGroups        1(wall);
        nFaces          243;
        startFace       8870;
    }
    procBoundary2to1
    {
        type            processor;
        inGroups        1(processor);
        nFaces          128;
        startFace       9113;
        matchTolerance  0.0001;
        transform       unknown;
        myProcNo        2;
        neighbProcNo    1;
    }
    procBoundary2to5
    {
        type            processor;
        inGroups        1(processor);
        nFaces          707;
        startFace       9241;
        matchTolerance  0.0001;
        transform       unknown;
        myProcNo        2;
        neighbProcNo    5;
    }
)

// ************************************************************************* //
