/*--------------------------------*- C++ -*----------------------------------*\
| =========                 |                                                 |
| \\      /  F ield         | OpenFOAM: The Open Source CFD Toolbox           |
|  \\    /   O peration     | Version:  2.3.x                                 |
|   \\  /    A nd           | Web:      www.OpenFOAM.org                      |
|    \\/     M anipulation  |                                                 |
\*---------------------------------------------------------------------------*/
FoamFile
{
    version     2.0;
    format      ascii;
    class       polyBoundaryMesh;
    location    "constant/polyMesh";
    object      boundary;
}
// * * * * * * * * * * * * * * * * * * * * * * * * * * * * * * * * * * * * * //

9
(
    slip
    {
        type            patch;
        nFaces          33;
        startFace       8462;
    }
    sym
    {
        type            symmetry;
        inGroups        1(symmetry);
        nFaces          0;
        startFace       8495;
    }
    inlet
    {
        type            patch;
        nFaces          0;
        startFace       8495;
    }
    outlet
    {
        type            patch;
        nFaces          0;
        startFace       8495;
    }
    lowerWall
    {
        type            wall;
        inGroups        1(wall);
        nFaces          115;
        startFace       8495;
    }
    wall
    {
        type            wall;
        inGroups        1(wall);
        nFaces          125;
        startFace       8610;
    }
    procBoundary4to1
    {
        type            processor;
        inGroups        1(processor);
        nFaces          570;
        startFace       8735;
        matchTolerance  0.0001;
        transform       unknown;
        myProcNo        4;
        neighbProcNo    1;
    }
    procBoundary4to3
    {
        type            processor;
        inGroups        1(processor);
        nFaces          207;
        startFace       9305;
        matchTolerance  0.0001;
        transform       unknown;
        myProcNo        4;
        neighbProcNo    3;
    }
    procBoundary4to5
    {
        type            processor;
        inGroups        1(processor);
        nFaces          199;
        startFace       9512;
        matchTolerance  0.0001;
        transform       unknown;
        myProcNo        4;
        neighbProcNo    5;
    }
)

// ************************************************************************* //
