/*--------------------------------*- C++ -*----------------------------------*\
| =========                 |                                                 |
| \\      /  F ield         | OpenFOAM: The Open Source CFD Toolbox           |
|  \\    /   O peration     | Version:  2.3.0                                 |
|   \\  /    A nd           | Web:      www.OpenFOAM.org                      |
|    \\/     M anipulation  |                                                 |
\*---------------------------------------------------------------------------*/
FoamFile
{
    version     2.0;
    format      ascii;
    class       polyBoundaryMesh;
    location    "constant/polyMesh";
    object      boundary;
}
// * * * * * * * * * * * * * * * * * * * * * * * * * * * * * * * * * * * * * //

9
(
    slip
    {
        type            patch;
        nFaces          0;
        startFace       12200;
    }
    sym
    {
        type            symmetry;
        inGroups        1(symmetry);
        nFaces          265;
        startFace       12200;
    }
    inlet
    {
        type            patch;
        nFaces          0;
        startFace       12465;
    }
    outlet
    {
        type            patch;
        nFaces          0;
        startFace       12465;
    }
    lowerWall
    {
        type            wall;
        inGroups        1(wall);
        nFaces          273;
        startFace       12465;
    }
    wall
    {
        type            wall;
        inGroups        1(wall);
        nFaces          571;
        startFace       12738;
    }
    procBoundary2to0
    {
        type            processor;
        inGroups        1(processor);
        nFaces          33;
        startFace       13309;
        matchTolerance  0.0001;
        transform       unknown;
        myProcNo        2;
        neighbProcNo    0;
    }
    procBoundary2to1
    {
        type            processor;
        inGroups        1(processor);
        nFaces          312;
        startFace       13342;
        matchTolerance  0.0001;
        transform       unknown;
        myProcNo        2;
        neighbProcNo    1;
    }
    procBoundary2to3
    {
        type            processor;
        inGroups        1(processor);
        nFaces          318;
        startFace       13654;
        matchTolerance  0.0001;
        transform       unknown;
        myProcNo        2;
        neighbProcNo    3;
    }
)

// ************************************************************************* //
